<routes>

<vType id="type0" color="255,105,180" length = "8.0" speedFactor="normc(1,0.1,0.2,2)" lcSpeedGain = "1">
        <param key="device.ssm.extratime" value="5.0"/>
        <param key="device.ssm.file" value="SSM/ssm_v0.xml"/>
        <param key="device.ssm.filter-edges.input-file" value="input_list.txt"/>
        <param key="device.ssm.geo" value="false"/>
        <param key="device.ssm.measures" value="TTC"/>
        <param key="device.ssm.range" value="50.0"/>
        <param key="device.ssm.thresholds" value="3.0"/>
        <param key="device.ssm.trajectories" value="true"/>
        <param key="has.ssm.device" value="true"/>
    </vType>
<vType id="type1" color="255,190,180" length = "8.0" carFollowModel = "IDM" speedFactor="normc(1,0.1,0.2,2)" lcSpeedGain = "1">
        <param key="device.ssm.extratime" value="5.0"/>
        <param key="device.ssm.file" value="SSM/ssm_v1.xml"/>
        <param key="device.ssm.filter-edges.input-file" value="input_list.txt"/>
        <param key="device.ssm.geo" value="false"/>
        <param key="device.ssm.measures" value="TTC"/>
        <param key="device.ssm.range" value="50.0"/>
        <param key="device.ssm.thresholds" value="3.0"/>
        <param key="device.ssm.trajectories" value="true"/>
        <param key="has.ssm.device" value="true"/>
    </vType>
<vType id="type2" color="22,255,255" length = "3.5" speedFactor="normc(1,0.1,0.2,2)" lcSpeedGain = "1">
        <param key="device.ssm.extratime" value="5.0"/>
        <param key="device.ssm.file" value="SSM/ssm_v2.xml"/>
        <param key="device.ssm.filter-edges.input-file" value="input_list.txt"/>
        <param key="device.ssm.geo" value="false"/>
        <param key="device.ssm.measures" value="TTC"/>
        <param key="device.ssm.range" value="50.0"/>
        <param key="device.ssm.thresholds" value="3.0"/>
        <param key="device.ssm.trajectories" value="true"/>
        <param key="has.ssm.device" value="true"/>
    </vType>
<vType id="type3" color="22,55,255" length = "3.5" carFollowModel = "IDM" speedFactor="normc(1,0.1,0.2,2)" lcSpeedGain = "1">
        <param key="device.ssm.extratime" value="5.0"/>
        <param key="device.ssm.file" value="SSM/ssm_v3.xml"/>
        <param key="device.ssm.filter-edges.input-file" value="input_list.txt"/>
        <param key="device.ssm.geo" value="false"/>
        <param key="device.ssm.measures" value="TTC"/>
        <param key="device.ssm.range" value="50.0"/>
        <param key="device.ssm.thresholds" value="3.0"/>
        <param key="device.ssm.trajectories" value="true"/>
        <param key="has.ssm.device" value="true"/>
    </vType>

<route id="0" edges="m2 m3 m4 m5 m6 m7 m8 m9"/> 
<route id="1" edges="m2 m3 m4 m5 m6 m7 rout1 rout2"/> 
<route id="2" edges="rin2 rin3 m7 m8 m9 "/> 

<vehicle id="0" depart="0.3" type="type3" route="0" departLane="random"/>

<vehicle id="1" depart="1.05" type="type2" route="1" departLane="random"/>

<vehicle id="2" depart="1.46" type="type0" route="0" departLane="random"/>

<vehicle id="3" depart="1.46" type="type2" route="0" departLane="random"/>

<vehicle id="4" depart="2.86" type="type3" route="0" departLane="random"/>

<vehicle id="5" depart="3.67" type="type2" route="2" departLane="random"/>

<vehicle id="6" depart="4.55" type="type3" route="0" departLane="random"/>

<vehicle id="7" depart="5.8" type="type1" route="0" departLane="random"/>

<vehicle id="8" depart="6.42" type="type2" route="0" departLane="random"/>

<vehicle id="9" depart="7.91" type="type3" route="1" departLane="random"/>

<vehicle id="10" depart="8.2" type="type2" route="0" departLane="random"/>

<vehicle id="11" depart="8.21" type="type2" route="2" departLane="random"/>

<vehicle id="12" depart="8.61" type="type2" route="0" departLane="random"/>

<vehicle id="13" depart="10.44" type="type3" route="0" departLane="random"/>

<vehicle id="14" depart="10.82" type="type2" route="0" departLane="random"/>

<vehicle id="15" depart="11.15" type="type2" route="1" departLane="random"/>

<vehicle id="16" depart="11.36" type="type3" route="0" departLane="random"/>

<vehicle id="17" depart="11.47" type="type3" route="0" departLane="random"/>

<vehicle id="18" depart="11.55" type="type3" route="2" departLane="random"/>

<vehicle id="19" depart="12.37" type="type1" route="0" departLane="random"/>

<vehicle id="20" depart="12.45" type="type1" route="0" departLane="random"/>

<vehicle id="21" depart="13.56" type="type2" route="1" departLane="random"/>

<vehicle id="22" depart="14.91" type="type2" route="0" departLane="random"/>

<vehicle id="23" depart="15.13" type="type2" route="0" departLane="random"/>

<vehicle id="24" depart="15.99" type="type2" route="0" departLane="random"/>

<vehicle id="25" depart="16.16" type="type1" route="0" departLane="random"/>

<vehicle id="26" depart="16.47" type="type3" route="0" departLane="random"/>

<vehicle id="27" depart="16.48" type="type0" route="0" departLane="random"/>

<vehicle id="28" depart="17.52" type="type3" route="0" departLane="random"/>

<vehicle id="29" depart="17.61" type="type2" route="0" departLane="random"/>

<vehicle id="30" depart="18.35" type="type2" route="2" departLane="random"/>

<vehicle id="31" depart="19.31" type="type2" route="0" departLane="random"/>

<vehicle id="32" depart="19.31" type="type2" route="0" departLane="random"/>

<vehicle id="33" depart="19.77" type="type2" route="0" departLane="random"/>

<vehicle id="34" depart="22.77" type="type2" route="0" departLane="random"/>

<vehicle id="35" depart="23.68" type="type3" route="0" departLane="random"/>

<vehicle id="36" depart="24.08" type="type3" route="0" departLane="random"/>

<vehicle id="37" depart="25.14" type="type3" route="1" departLane="random"/>

<vehicle id="38" depart="25.26" type="type3" route="0" departLane="random"/>

<vehicle id="39" depart="26.85" type="type2" route="0" departLane="random"/>

<vehicle id="40" depart="27.38" type="type3" route="1" departLane="random"/>

<vehicle id="41" depart="27.74" type="type2" route="0" departLane="random"/>

<vehicle id="42" depart="28.39" type="type0" route="0" departLane="random"/>

<vehicle id="43" depart="28.68" type="type3" route="0" departLane="random"/>

<vehicle id="44" depart="28.77" type="type3" route="0" departLane="random"/>

<vehicle id="45" depart="28.98" type="type1" route="0" departLane="random"/>

<vehicle id="46" depart="29.04" type="type1" route="0" departLane="random"/>

<vehicle id="47" depart="29.09" type="type3" route="2" departLane="random"/>

<vehicle id="48" depart="29.5" type="type2" route="0" departLane="random"/>

<vehicle id="49" depart="29.59" type="type2" route="0" departLane="random"/>

<vehicle id="50" depart="30.41" type="type3" route="0" departLane="random"/>

<vehicle id="51" depart="30.49" type="type2" route="1" departLane="random"/>

<vehicle id="52" depart="31.83" type="type2" route="0" departLane="random"/>

<vehicle id="53" depart="33.79" type="type3" route="0" departLane="random"/>

<vehicle id="54" depart="33.84" type="type2" route="0" departLane="random"/>

<vehicle id="55" depart="33.96" type="type1" route="0" departLane="random"/>

<vehicle id="56" depart="34.76" type="type3" route="1" departLane="random"/>

<vehicle id="57" depart="34.78" type="type3" route="0" departLane="random"/>

<vehicle id="58" depart="36.94" type="type0" route="1" departLane="random"/>

<vehicle id="59" depart="37.33" type="type2" route="0" departLane="random"/>

<vehicle id="60" depart="40.44" type="type2" route="0" departLane="random"/>

<vehicle id="61" depart="42.26" type="type2" route="0" departLane="random"/>

<vehicle id="62" depart="43.1" type="type3" route="0" departLane="random"/>

<vehicle id="63" depart="43.11" type="type2" route="0" departLane="random"/>

<vehicle id="64" depart="44.71" type="type3" route="0" departLane="random"/>

<vehicle id="65" depart="44.91" type="type2" route="0" departLane="random"/>

<vehicle id="66" depart="47.74" type="type3" route="0" departLane="random"/>

<vehicle id="67" depart="49.5" type="type3" route="0" departLane="random"/>

<vehicle id="68" depart="49.58" type="type2" route="0" departLane="random"/>

<vehicle id="69" depart="49.68" type="type3" route="0" departLane="random"/>

<vehicle id="70" depart="50.69" type="type1" route="1" departLane="random"/>

<vehicle id="71" depart="51.56" type="type3" route="0" departLane="random"/>

<vehicle id="72" depart="51.65" type="type3" route="1" departLane="random"/>

<vehicle id="73" depart="52.86" type="type2" route="1" departLane="random"/>

<vehicle id="74" depart="55.2" type="type0" route="0" departLane="random"/>

<vehicle id="75" depart="55.45" type="type1" route="0" departLane="random"/>

<vehicle id="76" depart="55.81" type="type0" route="0" departLane="random"/>

<vehicle id="77" depart="56.44" type="type3" route="0" departLane="random"/>

<vehicle id="78" depart="56.46" type="type0" route="0" departLane="random"/>

<vehicle id="79" depart="57.26" type="type3" route="0" departLane="random"/>

<vehicle id="80" depart="57.93" type="type2" route="1" departLane="random"/>

<vehicle id="81" depart="58.12" type="type2" route="1" departLane="random"/>

<vehicle id="82" depart="59.48" type="type3" route="2" departLane="random"/>

<vehicle id="83" depart="59.75" type="type1" route="2" departLane="random"/>

<vehicle id="84" depart="59.92" type="type0" route="2" departLane="random"/>

<vehicle id="85" depart="60.57" type="type3" route="0" departLane="random"/>

<vehicle id="86" depart="61.89" type="type2" route="0" departLane="random"/>

<vehicle id="87" depart="63.07" type="type3" route="1" departLane="random"/>

<vehicle id="88" depart="63.53" type="type2" route="1" departLane="random"/>

<vehicle id="89" depart="63.72" type="type3" route="1" departLane="random"/>

<vehicle id="90" depart="65.72" type="type2" route="0" departLane="random"/>

<vehicle id="91" depart="66.22" type="type3" route="0" departLane="random"/>

<vehicle id="92" depart="66.59" type="type3" route="0" departLane="random"/>

<vehicle id="93" depart="67.06" type="type1" route="1" departLane="random"/>

<vehicle id="94" depart="67.08" type="type2" route="0" departLane="random"/>

<vehicle id="95" depart="68.01" type="type3" route="0" departLane="random"/>

<vehicle id="96" depart="68.58" type="type2" route="1" departLane="random"/>

<vehicle id="97" depart="70.46" type="type3" route="1" departLane="random"/>

<vehicle id="98" depart="71.18" type="type3" route="0" departLane="random"/>

<vehicle id="99" depart="72.07" type="type2" route="0" departLane="random"/>

<vehicle id="100" depart="75.39" type="type1" route="0" departLane="random"/>

<vehicle id="101" depart="76.55" type="type2" route="0" departLane="random"/>

<vehicle id="102" depart="77.7" type="type2" route="0" departLane="random"/>

<vehicle id="103" depart="77.72" type="type1" route="0" departLane="random"/>

<vehicle id="104" depart="79.17" type="type2" route="0" departLane="random"/>

<vehicle id="105" depart="80.52" type="type2" route="0" departLane="random"/>

<vehicle id="106" depart="80.86" type="type1" route="0" departLane="random"/>

<vehicle id="107" depart="81.39" type="type0" route="2" departLane="random"/>

<vehicle id="108" depart="83.05" type="type2" route="0" departLane="random"/>

<vehicle id="109" depart="86.63" type="type2" route="2" departLane="random"/>

<vehicle id="110" depart="88.37" type="type0" route="0" departLane="random"/>

<vehicle id="111" depart="90.05" type="type2" route="0" departLane="random"/>

<vehicle id="112" depart="90.57" type="type0" route="2" departLane="random"/>

<vehicle id="113" depart="91.06" type="type2" route="0" departLane="random"/>

<vehicle id="114" depart="91.43" type="type0" route="0" departLane="random"/>

<vehicle id="115" depart="91.92" type="type3" route="0" departLane="random"/>

<vehicle id="116" depart="92.33" type="type3" route="1" departLane="random"/>

<vehicle id="117" depart="92.6" type="type3" route="0" departLane="random"/>

<vehicle id="118" depart="94.14" type="type3" route="0" departLane="random"/>

<vehicle id="119" depart="94.39" type="type0" route="0" departLane="random"/>

<vehicle id="120" depart="94.47" type="type3" route="0" departLane="random"/>

<vehicle id="121" depart="95.73" type="type0" route="0" departLane="random"/>

<vehicle id="122" depart="96.61" type="type0" route="2" departLane="random"/>

<vehicle id="123" depart="97.05" type="type3" route="0" departLane="random"/>

<vehicle id="124" depart="97.22" type="type1" route="1" departLane="random"/>

<vehicle id="125" depart="97.44" type="type0" route="0" departLane="random"/>

<vehicle id="126" depart="98.49" type="type2" route="0" departLane="random"/>

<vehicle id="127" depart="99.67" type="type3" route="0" departLane="random"/>

<vehicle id="128" depart="99.99" type="type3" route="1" departLane="random"/>

<vehicle id="129" depart="100.77" type="type3" route="0" departLane="random"/>

<vehicle id="130" depart="101.9" type="type2" route="2" departLane="random"/>

<vehicle id="131" depart="102.09" type="type3" route="2" departLane="random"/>

<vehicle id="132" depart="102.54" type="type2" route="0" departLane="random"/>

<vehicle id="133" depart="102.94" type="type3" route="1" departLane="random"/>

<vehicle id="134" depart="103.01" type="type2" route="0" departLane="random"/>

<vehicle id="135" depart="103.14" type="type2" route="2" departLane="random"/>

<vehicle id="136" depart="103.15" type="type2" route="0" departLane="random"/>

<vehicle id="137" depart="103.18" type="type0" route="2" departLane="random"/>

<vehicle id="138" depart="104.07" type="type3" route="0" departLane="random"/>

<vehicle id="139" depart="104.34" type="type3" route="0" departLane="random"/>

<vehicle id="140" depart="105.32" type="type2" route="1" departLane="random"/>

<vehicle id="141" depart="105.79" type="type0" route="1" departLane="random"/>

<vehicle id="142" depart="107.2" type="type0" route="0" departLane="random"/>

<vehicle id="143" depart="108.6" type="type1" route="0" departLane="random"/>

<vehicle id="144" depart="109.94" type="type3" route="1" departLane="random"/>

<vehicle id="145" depart="111.22" type="type2" route="0" departLane="random"/>

<vehicle id="146" depart="111.79" type="type3" route="0" departLane="random"/>

<vehicle id="147" depart="113.19" type="type3" route="2" departLane="random"/>

<vehicle id="148" depart="113.27" type="type3" route="0" departLane="random"/>

<vehicle id="149" depart="114.83" type="type3" route="0" departLane="random"/>

<vehicle id="150" depart="118.08" type="type3" route="1" departLane="random"/>

<vehicle id="151" depart="118.51" type="type0" route="0" departLane="random"/>

<vehicle id="152" depart="118.76" type="type2" route="0" departLane="random"/>

<vehicle id="153" depart="118.85" type="type2" route="1" departLane="random"/>

<vehicle id="154" depart="119.0" type="type2" route="0" departLane="random"/>

<vehicle id="155" depart="119.06" type="type2" route="0" departLane="random"/>

<vehicle id="156" depart="120.48" type="type3" route="0" departLane="random"/>

<vehicle id="157" depart="121.19" type="type2" route="1" departLane="random"/>

<vehicle id="158" depart="121.32" type="type3" route="0" departLane="random"/>

<vehicle id="159" depart="121.77" type="type3" route="2" departLane="random"/>

<vehicle id="160" depart="123.74" type="type3" route="0" departLane="random"/>

<vehicle id="161" depart="126.85" type="type2" route="0" departLane="random"/>

<vehicle id="162" depart="129.06" type="type3" route="2" departLane="random"/>

<vehicle id="163" depart="129.32" type="type0" route="0" departLane="random"/>

<vehicle id="164" depart="130.09" type="type2" route="0" departLane="random"/>

<vehicle id="165" depart="130.61" type="type3" route="1" departLane="random"/>

<vehicle id="166" depart="131.48" type="type2" route="1" departLane="random"/>

<vehicle id="167" depart="132.11" type="type1" route="0" departLane="random"/>

<vehicle id="168" depart="135.88" type="type1" route="2" departLane="random"/>

<vehicle id="169" depart="136.38" type="type2" route="2" departLane="random"/>

<vehicle id="170" depart="136.83" type="type2" route="0" departLane="random"/>

<vehicle id="171" depart="136.88" type="type3" route="0" departLane="random"/>

<vehicle id="172" depart="137.84" type="type3" route="1" departLane="random"/>

<vehicle id="173" depart="140.11" type="type3" route="0" departLane="random"/>

<vehicle id="174" depart="141.92" type="type3" route="0" departLane="random"/>

<vehicle id="175" depart="142.23" type="type2" route="0" departLane="random"/>

<vehicle id="176" depart="142.58" type="type2" route="0" departLane="random"/>

<vehicle id="177" depart="142.8" type="type2" route="0" departLane="random"/>

<vehicle id="178" depart="144.12" type="type1" route="0" departLane="random"/>

<vehicle id="179" depart="145.65" type="type3" route="0" departLane="random"/>

<vehicle id="180" depart="146.83" type="type3" route="0" departLane="random"/>

<vehicle id="181" depart="147.09" type="type2" route="1" departLane="random"/>

<vehicle id="182" depart="147.27" type="type3" route="0" departLane="random"/>

<vehicle id="183" depart="147.35" type="type3" route="1" departLane="random"/>

<vehicle id="184" depart="147.86" type="type2" route="0" departLane="random"/>

<vehicle id="185" depart="148.6" type="type2" route="0" departLane="random"/>

<vehicle id="186" depart="149.57" type="type2" route="2" departLane="random"/>

<vehicle id="187" depart="150.86" type="type3" route="0" departLane="random"/>

<vehicle id="188" depart="152.43" type="type2" route="1" departLane="random"/>

<vehicle id="189" depart="153.04" type="type3" route="0" departLane="random"/>

<vehicle id="190" depart="153.33" type="type2" route="0" departLane="random"/>

<vehicle id="191" depart="153.64" type="type3" route="2" departLane="random"/>

<vehicle id="192" depart="154.0" type="type3" route="0" departLane="random"/>

<vehicle id="193" depart="154.7" type="type2" route="0" departLane="random"/>

<vehicle id="194" depart="157.59" type="type3" route="1" departLane="random"/>

<vehicle id="195" depart="158.72" type="type3" route="0" departLane="random"/>

<vehicle id="196" depart="159.26" type="type3" route="1" departLane="random"/>

<vehicle id="197" depart="159.91" type="type2" route="0" departLane="random"/>

<vehicle id="198" depart="159.92" type="type2" route="2" departLane="random"/>

<vehicle id="199" depart="159.99" type="type3" route="2" departLane="random"/>

<vehicle id="200" depart="160.79" type="type0" route="0" departLane="random"/>

<vehicle id="201" depart="161.01" type="type1" route="1" departLane="random"/>

<vehicle id="202" depart="161.17" type="type3" route="1" departLane="random"/>

<vehicle id="203" depart="162.31" type="type3" route="0" departLane="random"/>

<vehicle id="204" depart="162.63" type="type1" route="0" departLane="random"/>

<vehicle id="205" depart="163.65" type="type3" route="0" departLane="random"/>

<vehicle id="206" depart="163.8" type="type3" route="0" departLane="random"/>

<vehicle id="207" depart="163.81" type="type0" route="0" departLane="random"/>

<vehicle id="208" depart="164.24" type="type0" route="0" departLane="random"/>

<vehicle id="209" depart="164.31" type="type2" route="0" departLane="random"/>

<vehicle id="210" depart="164.56" type="type3" route="2" departLane="random"/>

<vehicle id="211" depart="165.6" type="type3" route="0" departLane="random"/>

<vehicle id="212" depart="166.29" type="type1" route="2" departLane="random"/>

<vehicle id="213" depart="166.6" type="type3" route="0" departLane="random"/>

<vehicle id="214" depart="166.7" type="type3" route="0" departLane="random"/>

<vehicle id="215" depart="166.8" type="type3" route="0" departLane="random"/>

<vehicle id="216" depart="169.21" type="type3" route="1" departLane="random"/>

<vehicle id="217" depart="169.32" type="type2" route="1" departLane="random"/>

<vehicle id="218" depart="169.63" type="type2" route="0" departLane="random"/>

<vehicle id="219" depart="170.51" type="type3" route="0" departLane="random"/>

<vehicle id="220" depart="171.32" type="type2" route="0" departLane="random"/>

<vehicle id="221" depart="171.38" type="type3" route="0" departLane="random"/>

<vehicle id="222" depart="171.44" type="type0" route="0" departLane="random"/>

<vehicle id="223" depart="172.44" type="type2" route="0" departLane="random"/>

<vehicle id="224" depart="172.63" type="type0" route="0" departLane="random"/>

<vehicle id="225" depart="175.35" type="type3" route="1" departLane="random"/>

<vehicle id="226" depart="177.05" type="type2" route="1" departLane="random"/>

<vehicle id="227" depart="177.41" type="type1" route="1" departLane="random"/>

<vehicle id="228" depart="179.48" type="type2" route="1" departLane="random"/>

<vehicle id="229" depart="179.8" type="type2" route="2" departLane="random"/>

<vehicle id="230" depart="180.29" type="type2" route="1" departLane="random"/>

<vehicle id="231" depart="180.38" type="type2" route="0" departLane="random"/>

<vehicle id="232" depart="181.25" type="type2" route="0" departLane="random"/>

<vehicle id="233" depart="181.8" type="type2" route="0" departLane="random"/>

<vehicle id="234" depart="181.87" type="type3" route="0" departLane="random"/>

<vehicle id="235" depart="182.11" type="type2" route="0" departLane="random"/>

<vehicle id="236" depart="182.57" type="type0" route="2" departLane="random"/>

<vehicle id="237" depart="182.94" type="type3" route="0" departLane="random"/>

<vehicle id="238" depart="183.38" type="type2" route="1" departLane="random"/>

<vehicle id="239" depart="183.78" type="type3" route="1" departLane="random"/>

<vehicle id="240" depart="184.4" type="type3" route="0" departLane="random"/>

<vehicle id="241" depart="186.41" type="type3" route="0" departLane="random"/>

<vehicle id="242" depart="187.18" type="type2" route="0" departLane="random"/>

<vehicle id="243" depart="187.23" type="type2" route="0" departLane="random"/>

<vehicle id="244" depart="187.74" type="type3" route="1" departLane="random"/>

<vehicle id="245" depart="187.87" type="type2" route="0" departLane="random"/>

<vehicle id="246" depart="189.11" type="type2" route="1" departLane="random"/>

<vehicle id="247" depart="189.45" type="type3" route="0" departLane="random"/>

<vehicle id="248" depart="190.29" type="type2" route="0" departLane="random"/>

<vehicle id="249" depart="190.68" type="type3" route="1" departLane="random"/>

<vehicle id="250" depart="190.79" type="type3" route="2" departLane="random"/>

<vehicle id="251" depart="191.26" type="type3" route="1" departLane="random"/>

<vehicle id="252" depart="191.54" type="type2" route="2" departLane="random"/>

<vehicle id="253" depart="192.97" type="type2" route="2" departLane="random"/>

<vehicle id="254" depart="195.99" type="type3" route="1" departLane="random"/>

<vehicle id="255" depart="196.02" type="type0" route="0" departLane="random"/>

<vehicle id="256" depart="196.37" type="type3" route="0" departLane="random"/>

<vehicle id="257" depart="196.69" type="type2" route="0" departLane="random"/>

<vehicle id="258" depart="196.95" type="type3" route="0" departLane="random"/>

<vehicle id="259" depart="198.81" type="type3" route="0" departLane="random"/>

<vehicle id="260" depart="199.08" type="type2" route="0" departLane="random"/>

<vehicle id="261" depart="200.2" type="type2" route="0" departLane="random"/>

<vehicle id="262" depart="200.52" type="type3" route="1" departLane="random"/>

<vehicle id="263" depart="201.28" type="type3" route="0" departLane="random"/>

<vehicle id="264" depart="201.41" type="type1" route="1" departLane="random"/>

<vehicle id="265" depart="203.26" type="type2" route="1" departLane="random"/>

<vehicle id="266" depart="203.76" type="type3" route="0" departLane="random"/>

<vehicle id="267" depart="204.71" type="type3" route="0" departLane="random"/>

<vehicle id="268" depart="205.95" type="type0" route="2" departLane="random"/>

<vehicle id="269" depart="207.57" type="type3" route="1" departLane="random"/>

<vehicle id="270" depart="207.77" type="type3" route="0" departLane="random"/>

<vehicle id="271" depart="208.4" type="type2" route="1" departLane="random"/>

<vehicle id="272" depart="208.52" type="type3" route="2" departLane="random"/>

<vehicle id="273" depart="208.64" type="type2" route="0" departLane="random"/>

<vehicle id="274" depart="208.82" type="type3" route="0" departLane="random"/>

<vehicle id="275" depart="210.81" type="type3" route="0" departLane="random"/>

<vehicle id="276" depart="210.82" type="type3" route="0" departLane="random"/>

<vehicle id="277" depart="211.17" type="type3" route="0" departLane="random"/>

<vehicle id="278" depart="211.85" type="type3" route="0" departLane="random"/>

<vehicle id="279" depart="212.67" type="type2" route="0" departLane="random"/>

<vehicle id="280" depart="212.91" type="type1" route="1" departLane="random"/>

<vehicle id="281" depart="212.96" type="type2" route="1" departLane="random"/>

<vehicle id="282" depart="213.2" type="type3" route="1" departLane="random"/>

<vehicle id="283" depart="213.9" type="type3" route="0" departLane="random"/>

<vehicle id="284" depart="215.09" type="type2" route="1" departLane="random"/>

<vehicle id="285" depart="215.11" type="type3" route="0" departLane="random"/>

<vehicle id="286" depart="215.24" type="type2" route="1" departLane="random"/>

<vehicle id="287" depart="215.96" type="type2" route="0" departLane="random"/>

<vehicle id="288" depart="216.31" type="type3" route="1" departLane="random"/>

<vehicle id="289" depart="217.04" type="type0" route="2" departLane="random"/>

<vehicle id="290" depart="217.73" type="type3" route="0" departLane="random"/>

<vehicle id="291" depart="218.58" type="type2" route="0" departLane="random"/>

<vehicle id="292" depart="220.07" type="type0" route="2" departLane="random"/>

<vehicle id="293" depart="220.78" type="type2" route="0" departLane="random"/>

<vehicle id="294" depart="221.5" type="type2" route="2" departLane="random"/>

<vehicle id="295" depart="222.45" type="type2" route="0" departLane="random"/>

<vehicle id="296" depart="223.0" type="type2" route="0" departLane="random"/>

<vehicle id="297" depart="223.31" type="type3" route="0" departLane="random"/>

<vehicle id="298" depart="224.25" type="type2" route="2" departLane="random"/>

<vehicle id="299" depart="224.5" type="type2" route="1" departLane="random"/>

<vehicle id="300" depart="226.52" type="type3" route="0" departLane="random"/>

<vehicle id="301" depart="227.0" type="type3" route="0" departLane="random"/>

<vehicle id="302" depart="229.61" type="type3" route="1" departLane="random"/>

<vehicle id="303" depart="232.18" type="type1" route="0" departLane="random"/>

<vehicle id="304" depart="232.35" type="type2" route="0" departLane="random"/>

<vehicle id="305" depart="233.31" type="type3" route="0" departLane="random"/>

<vehicle id="306" depart="235.13" type="type2" route="0" departLane="random"/>

<vehicle id="307" depart="235.94" type="type2" route="0" departLane="random"/>

<vehicle id="308" depart="236.14" type="type3" route="0" departLane="random"/>

<vehicle id="309" depart="237.42" type="type2" route="0" departLane="random"/>

<vehicle id="310" depart="238.29" type="type3" route="0" departLane="random"/>

<vehicle id="311" depart="238.79" type="type2" route="0" departLane="random"/>

<vehicle id="312" depart="239.12" type="type2" route="1" departLane="random"/>

<vehicle id="313" depart="239.6" type="type2" route="0" departLane="random"/>

<vehicle id="314" depart="240.09" type="type3" route="1" departLane="random"/>

<vehicle id="315" depart="240.33" type="type3" route="0" departLane="random"/>

<vehicle id="316" depart="240.8" type="type3" route="2" departLane="random"/>

<vehicle id="317" depart="243.31" type="type3" route="0" departLane="random"/>

<vehicle id="318" depart="243.33" type="type2" route="0" departLane="random"/>

<vehicle id="319" depart="244.05" type="type2" route="0" departLane="random"/>

<vehicle id="320" depart="246.76" type="type3" route="1" departLane="random"/>

<vehicle id="321" depart="246.79" type="type3" route="0" departLane="random"/>

<vehicle id="322" depart="246.82" type="type3" route="0" departLane="random"/>

<vehicle id="323" depart="248.2" type="type0" route="2" departLane="random"/>

<vehicle id="324" depart="248.65" type="type3" route="1" departLane="random"/>

<vehicle id="325" depart="249.32" type="type2" route="0" departLane="random"/>

<vehicle id="326" depart="249.52" type="type3" route="1" departLane="random"/>

<vehicle id="327" depart="249.62" type="type2" route="1" departLane="random"/>

<vehicle id="328" depart="250.07" type="type2" route="0" departLane="random"/>

<vehicle id="329" depart="251.39" type="type2" route="0" departLane="random"/>

<vehicle id="330" depart="251.6" type="type2" route="0" departLane="random"/>

<vehicle id="331" depart="252.68" type="type2" route="0" departLane="random"/>

<vehicle id="332" depart="252.69" type="type3" route="1" departLane="random"/>

<vehicle id="333" depart="253.06" type="type3" route="0" departLane="random"/>
