<?xml version="1.0" encoding="UTF-8"?>

<!-- generated on 2023-09-03 12:29:07 by Eclipse SUMO netedit Version 1.18.0
<configuration xmlns:xsi="http://www.w3.org/2001/XMLSchema-instance" xsi:noNamespaceSchemaLocation="http://sumo.dlr.de/xsd/neteditConfiguration.xsd">

    <input>
        <sumo-net-file value="D:\project\python\ucd\RLlib_test\sumo-rl-VSL12.1.7\nets\ramp_VSL\map.net.xml"/>
    </input>

    <output>
        <output-file value="D:\project\python\ucd\RLlib_test\sumo-rl-VSL12.1.7\nets\ramp_VSL\map.net.xml"/>
    </output>

    <processing>
        <geometry.min-radius.fix.railways value="false"/>
        <geometry.max-grade.fix value="false"/>
        <offset.disable-normalization value="true"/>
        <lefthand value="0"/>
    </processing>

    <junctions>
        <no-turnarounds value="true"/>
        <junctions.corner-detail value="0"/>
        <junctions.limit-turn-speed value="-1.00"/>
        <rectangular-lane-cut value="0"/>
    </junctions>

    <pedestrian>
        <walkingareas value="0"/>
    </pedestrian>

</configuration>
-->

<net version="1.16" xmlns:xsi="http://www.w3.org/2001/XMLSchema-instance" xsi:noNamespaceSchemaLocation="http://sumo.dlr.de/xsd/net_file.xsd">

    <location netOffset="-376663.55,-3746035.54" convBoundary="1689.62,0.00,4509.47,2584.64" origBoundary="-118.333343,33.847761,-118.286321,33.871072" projParameter="+proj=utm +zone=11 +ellps=WGS84 +datum=WGS84 +units=m +no_defs"/>

    <type id="highway.motorway" priority="13" numLanes="2" speed="44.44" allow="private emergency authority army vip passenger hov taxi bus coach delivery truck trailer motorcycle evehicle custom1 custom2" oneway="1"/>
    <type id="highway.motorway_link" priority="12" numLanes="1" speed="22.22" allow="private emergency authority army vip passenger hov taxi bus coach delivery truck trailer motorcycle evehicle custom1 custom2" oneway="1"/>

    <edge id=":27748104#0-AddedOnRampNode_0" function="internal">
        <lane id=":27748104#0-AddedOnRampNode_0_0" index="0" allow="private emergency authority army vip passenger hov taxi bus coach delivery truck trailer motorcycle evehicle custom1 custom2" speed="33.33" length="0.43" shape="3901.95,1315.32 3901.69,1315.42"/>
        <lane id=":27748104#0-AddedOnRampNode_0_1" index="1" allow="private emergency authority army vip passenger hov taxi bus coach delivery truck trailer motorcycle evehicle custom1 custom2" speed="33.33" length="0.43" shape="3900.85,1312.31 3900.52,1312.44"/>
        <lane id=":27748104#0-AddedOnRampNode_0_2" index="2" allow="private emergency authority army vip passenger hov taxi bus coach delivery truck trailer motorcycle evehicle custom1 custom2" speed="33.33" length="0.43" shape="3899.75,1309.31 3899.35,1309.46"/>
        <lane id=":27748104#0-AddedOnRampNode_0_3" index="3" allow="private emergency authority army vip passenger hov taxi bus coach delivery truck trailer motorcycle evehicle custom1 custom2" speed="33.33" length="0.43" shape="3898.65,1306.30 3898.18,1306.48"/>
        <lane id=":27748104#0-AddedOnRampNode_0_4" index="4" allow="private emergency authority army vip passenger hov taxi bus coach delivery truck trailer motorcycle evehicle custom1 custom2" speed="33.33" length="0.43" shape="3897.55,1303.30 3897.02,1303.50"/>
    </edge>
    <edge id=":304821770_0" function="internal">
        <lane id=":304821770_0_0" index="0" allow="private emergency authority army vip passenger hov taxi bus coach delivery truck trailer motorcycle evehicle custom1 custom2" speed="33.33" length="0.30" shape="3367.29,1353.55 3366.93,1353.55"/>
        <lane id=":304821770_0_1" index="1" allow="private emergency authority army vip passenger hov taxi bus coach delivery truck trailer motorcycle evehicle custom1 custom2" speed="33.33" length="0.30" shape="3367.31,1350.35 3366.99,1350.35"/>
        <lane id=":304821770_0_2" index="2" allow="private emergency authority army vip passenger hov taxi bus coach delivery truck trailer motorcycle evehicle custom1 custom2" speed="33.33" length="0.30" shape="3367.34,1347.15 3367.04,1347.15"/>
        <lane id=":304821770_0_3" index="3" allow="private emergency authority army vip passenger hov taxi bus coach delivery truck trailer motorcycle evehicle custom1 custom2" speed="33.33" length="0.30" shape="3367.36,1343.95 3367.10,1343.95"/>
        <lane id=":304821770_0_4" index="4" allow="private emergency authority army vip passenger hov taxi bus coach delivery truck trailer motorcycle evehicle custom1 custom2" speed="33.33" length="0.30" shape="3367.38,1340.75 3367.15,1340.75"/>
    </edge>
    <edge id=":304822559_0" function="internal">
        <lane id=":304822559_0_0" index="0" allow="private emergency authority army vip passenger hov taxi bus coach delivery truck trailer motorcycle evehicle custom1 custom2" speed="33.33" length="3.89" shape="3570.55,1358.19 3567.42,1358.47"/>
        <lane id=":304822559_0_1" index="1" allow="private emergency authority army vip passenger hov taxi bus coach delivery truck trailer motorcycle evehicle custom1 custom2" speed="33.33" length="3.89" shape="3570.48,1354.99 3567.42,1358.47"/>
    </edge>
    <edge id=":304822559_2" function="internal">
        <lane id=":304822559_2_0" index="0" allow="private emergency authority army vip passenger hov taxi bus coach delivery truck trailer motorcycle evehicle custom1 custom2" speed="33.33" length="2.94" shape="3570.48,1354.99 3567.41,1355.01"/>
        <lane id=":304822559_2_1" index="1" allow="private emergency authority army vip passenger hov taxi bus coach delivery truck trailer motorcycle evehicle custom1 custom2" speed="33.33" length="2.94" shape="3570.42,1351.79 3567.41,1351.81"/>
        <lane id=":304822559_2_2" index="2" allow="private emergency authority army vip passenger hov taxi bus coach delivery truck trailer motorcycle evehicle custom1 custom2" speed="33.33" length="2.94" shape="3570.35,1348.59 3567.41,1348.61"/>
        <lane id=":304822559_2_3" index="3" allow="private emergency authority army vip passenger hov taxi bus coach delivery truck trailer motorcycle evehicle custom1 custom2" speed="33.33" length="2.94" shape="3570.29,1345.39 3567.41,1345.41"/>
        <lane id=":304822559_2_4" index="4" allow="private emergency authority army vip passenger hov taxi bus coach delivery truck trailer motorcycle evehicle custom1 custom2" speed="33.33" length="2.94" shape="3570.22,1342.19 3567.40,1342.21"/>
    </edge>
    <edge id=":304822600_0" function="internal">
        <lane id=":304822600_0_0" index="0" allow="private emergency authority army vip passenger hov taxi bus coach delivery truck trailer motorcycle evehicle custom1 custom2" speed="33.33" length="2.99" shape="3702.56,1352.22 3699.39,1352.33"/>
        <lane id=":304822600_0_1" index="1" allow="private emergency authority army vip passenger hov taxi bus coach delivery truck trailer motorcycle evehicle custom1 custom2" speed="33.33" length="2.99" shape="3702.40,1349.02 3699.33,1349.13"/>
        <lane id=":304822600_0_2" index="2" allow="private emergency authority army vip passenger hov taxi bus coach delivery truck trailer motorcycle evehicle custom1 custom2" speed="33.33" length="2.99" shape="3702.25,1345.82 3699.26,1345.93"/>
        <lane id=":304822600_0_3" index="3" allow="private emergency authority army vip passenger hov taxi bus coach delivery truck trailer motorcycle evehicle custom1 custom2" speed="33.33" length="2.99" shape="3702.09,1342.63 3699.20,1342.73"/>
        <lane id=":304822600_0_4" index="4" allow="private emergency authority army vip passenger hov taxi bus coach delivery truck trailer motorcycle evehicle custom1 custom2" speed="33.33" length="2.99" shape="3701.93,1339.43 3699.13,1339.53"/>
    </edge>
    <edge id=":304822600_5" function="internal">
        <lane id=":304822600_5_0" index="0" allow="private emergency authority army vip passenger hov taxi bus coach delivery truck trailer motorcycle evehicle custom1 custom2" speed="33.33" length="3.27" shape="3702.73,1355.63 3701.76,1355.65 3701.10,1355.60 3700.43,1355.54 3699.46,1355.53"/>
    </edge>
    <edge id=":304822667_0" function="internal">
        <lane id=":304822667_0_0" index="0" allow="private emergency authority army vip passenger hov taxi bus coach delivery truck trailer motorcycle evehicle custom1 custom2" speed="33.33" length="0.25" shape="3366.34,1364.35 3366.10,1364.38"/>
    </edge>
    <edge id=":304822707_0" function="internal">
        <lane id=":304822707_0_0" index="0" allow="private emergency authority army vip passenger hov taxi bus coach delivery truck trailer motorcycle evehicle custom1 custom2" speed="33.33" length="0.30" shape="3899.47,1357.74 3899.17,1357.72"/>
    </edge>
    <edge id=":gneJ2_0" function="internal">
        <lane id=":gneJ2_0_0" index="0" speed="33.33" length="0.41" shape="4091.22,1246.00 4090.97,1246.09"/>
        <lane id=":gneJ2_0_1" index="1" speed="33.33" length="0.41" shape="4090.19,1242.97 4089.87,1243.09"/>
        <lane id=":gneJ2_0_2" index="2" speed="33.33" length="0.41" shape="4089.15,1239.94 4088.77,1240.08"/>
        <lane id=":gneJ2_0_3" index="3" speed="33.33" length="0.41" shape="4088.12,1236.92 4087.67,1237.08"/>
        <lane id=":gneJ2_0_4" index="4" speed="33.33" length="0.41" shape="4087.08,1233.89 4086.57,1234.07"/>
    </edge>
    <edge id=":gneJ3_0" function="internal">
        <lane id=":gneJ3_0_0" index="0" speed="33.33" length="0.30" shape="4277.87,1182.17 4277.58,1182.27"/>
        <lane id=":gneJ3_0_1" index="1" speed="33.33" length="0.30" shape="4276.83,1179.15 4276.54,1179.25"/>
        <lane id=":gneJ3_0_2" index="2" speed="33.33" length="0.30" shape="4275.79,1176.12 4275.51,1176.22"/>
        <lane id=":gneJ3_0_3" index="3" speed="33.33" length="0.30" shape="4274.75,1173.10 4274.47,1173.19"/>
        <lane id=":gneJ3_0_4" index="4" speed="33.33" length="0.30" shape="4273.71,1170.07 4273.44,1170.16"/>
    </edge>
    <edge id=":gneJ4_0" function="internal">
        <lane id=":gneJ4_0_0" index="0" speed="33.33" length="0.59" shape="4467.64,1116.92 4467.27,1117.04"/>
        <lane id=":gneJ4_0_1" index="1" speed="33.33" length="0.59" shape="4466.69,1113.86 4466.23,1114.01"/>
        <lane id=":gneJ4_0_2" index="2" speed="33.33" length="0.59" shape="4465.75,1110.80 4465.19,1110.99"/>
        <lane id=":gneJ4_0_3" index="3" speed="33.33" length="0.59" shape="4464.81,1107.75 4464.15,1107.96"/>
        <lane id=":gneJ4_0_4" index="4" speed="33.33" length="0.59" shape="4463.86,1104.69 4463.11,1104.93"/>
    </edge>

    <edge id="m2" from="gneJ10" to="gneJ4" priority="-1" type="highway.motorway" spreadType="center">
        <lane id="m2_0" index="0" speed="33.33" length="45.75" shape="4511.36,1103.43 4467.64,1116.92"/>
        <lane id="m2_1" index="1" speed="33.33" length="45.75" shape="4510.41,1100.37 4466.69,1113.86"/>
        <lane id="m2_2" index="2" speed="33.33" length="45.75" shape="4509.47,1097.31 4465.75,1110.80"/>
        <lane id="m2_3" index="3" speed="33.33" length="45.75" shape="4508.53,1094.25 4464.81,1107.75"/>
        <lane id="m2_4" index="4" speed="33.33" length="45.75" shape="4507.58,1091.19 4463.86,1104.69"/>
    </edge>
    <edge id="m3" from="gneJ4" to="gneJ3" priority="-1" type="highway.motorway" spreadType="center">
        <lane id="m3_0" index="0" speed="33.33" length="200.29" shape="4467.27,1117.04 4277.87,1182.17"/>
        <lane id="m3_1" index="1" speed="33.33" length="200.29" shape="4466.23,1114.01 4276.83,1179.15"/>
        <lane id="m3_2" index="2" speed="33.33" length="200.29" shape="4465.19,1110.99 4275.79,1176.12"/>
        <lane id="m3_3" index="3" speed="33.33" length="200.29" shape="4464.15,1107.96 4274.75,1173.10"/>
        <lane id="m3_4" index="4" speed="33.33" length="200.29" shape="4463.11,1104.93 4273.71,1170.07"/>
    </edge>
    <edge id="m4" from="gneJ3" to="gneJ2" priority="-1" type="highway.motorway" spreadType="center">
        <lane id="m4_0" index="0" speed="33.33" length="196.95" shape="4277.58,1182.27 4091.22,1246.00"/>
        <lane id="m4_1" index="1" speed="33.33" length="196.95" shape="4276.54,1179.25 4090.19,1242.97"/>
        <lane id="m4_2" index="2" speed="33.33" length="196.95" shape="4275.51,1176.22 4089.15,1239.94"/>
        <lane id="m4_3" index="3" speed="33.33" length="196.95" shape="4274.47,1173.19 4088.12,1236.92"/>
        <lane id="m4_4" index="4" speed="33.33" length="196.95" shape="4273.44,1170.16 4087.08,1233.89"/>
    </edge>
    <edge id="m5" from="gneJ2" to="27748104#0-AddedOnRampNode" priority="-1" type="highway.motorway" spreadType="center">
        <lane id="m5_0" index="0" speed="33.33" length="201.30" shape="4090.97,1246.09 3901.95,1315.32"/>
        <lane id="m5_1" index="1" speed="33.33" length="201.30" shape="4089.87,1243.09 3900.85,1312.31"/>
        <lane id="m5_2" index="2" speed="33.33" length="201.30" shape="4088.77,1240.08 3899.75,1309.31"/>
        <lane id="m5_3" index="3" speed="33.33" length="201.30" shape="4087.67,1237.08 3898.65,1306.30"/>
        <lane id="m5_4" index="4" speed="33.33" length="201.30" shape="4086.57,1234.07 3897.55,1303.30"/>
    </edge>
    <edge id="m6" from="27748104#0-AddedOnRampNode" to="304822600" priority="13" type="highway.motorway" spreadType="center" shape="3899.55,1309.38 3884.35,1315.34 3841.07,1328.20 3802.69,1335.78 3763.70,1342.81 3700.71,1345.90">
        <lane id="m6_0" index="0" allow="private emergency authority army vip passenger hov taxi bus coach delivery truck trailer motorcycle evehicle custom1 custom2" speed="33.33" length="201.53" shape="3901.69,1315.42 3886.43,1321.40 3842.60,1334.42 3803.88,1342.07 3764.43,1349.18 3702.56,1352.22"/>
        <lane id="m6_1" index="1" allow="private emergency authority army vip passenger hov taxi bus coach delivery truck trailer motorcycle evehicle custom1 custom2" speed="33.33" length="201.53" shape="3900.52,1312.44 3885.39,1318.37 3841.84,1331.31 3803.28,1338.92 3764.06,1346.00 3702.40,1349.02"/>
        <lane id="m6_2" index="2" allow="private emergency authority army vip passenger hov taxi bus coach delivery truck trailer motorcycle evehicle custom1 custom2" speed="33.33" length="201.53" shape="3899.35,1309.46 3884.35,1315.34 3841.07,1328.20 3802.69,1335.78 3763.70,1342.81 3702.25,1345.82"/>
        <lane id="m6_3" index="3" allow="private emergency authority army vip passenger hov taxi bus coach delivery truck trailer motorcycle evehicle custom1 custom2" speed="33.33" length="201.53" shape="3898.18,1306.48 3883.31,1312.31 3840.30,1325.09 3802.10,1332.64 3763.34,1339.62 3702.09,1342.63"/>
        <lane id="m6_4" index="4" allow="private emergency authority army vip passenger hov taxi bus coach delivery truck trailer motorcycle evehicle custom1 custom2" speed="33.33" length="201.53" shape="3897.02,1303.50 3882.27,1309.28 3839.54,1321.98 3801.50,1329.49 3762.97,1336.44 3701.93,1339.43"/>
    </edge>
    <edge id="m7" from="304822600" to="304822559" priority="13" type="highway.motorway" spreadType="center" shape="3700.74,1347.50 3568.82,1350.22">
        <lane id="m7_0" index="0" allow="private emergency authority army vip passenger hov taxi bus coach delivery truck trailer motorcycle evehicle custom1 custom2" speed="33.33" length="128.94" acceleration="1" shape="3699.46,1355.53 3570.55,1358.19"/>
        <lane id="m7_1" index="1" allow="private emergency authority army vip passenger hov taxi bus coach delivery truck trailer motorcycle evehicle custom1 custom2" speed="33.33" length="128.94" shape="3699.39,1352.33 3570.48,1354.99"/>
        <lane id="m7_2" index="2" allow="private emergency authority army vip passenger hov taxi bus coach delivery truck trailer motorcycle evehicle custom1 custom2" speed="33.33" length="128.94" shape="3699.33,1349.13 3570.42,1351.79"/>
        <lane id="m7_3" index="3" allow="private emergency authority army vip passenger hov taxi bus coach delivery truck trailer motorcycle evehicle custom1 custom2" speed="33.33" length="128.94" shape="3699.26,1345.93 3570.35,1348.59"/>
        <lane id="m7_4" index="4" allow="private emergency authority army vip passenger hov taxi bus coach delivery truck trailer motorcycle evehicle custom1 custom2" speed="33.33" length="128.94" shape="3699.20,1342.73 3570.29,1345.39"/>
        <lane id="m7_5" index="5" allow="private emergency authority army vip passenger hov taxi bus coach delivery truck trailer motorcycle evehicle custom1 custom2" speed="33.33" length="128.94" shape="3699.13,1339.53 3570.22,1342.19"/>
    </edge>
    <edge id="m8" from="304822559" to="304821770" priority="13" type="highway.motorway" spreadType="center">
        <lane id="m8_0" index="0" allow="private emergency authority army vip passenger hov taxi bus coach delivery truck trailer motorcycle evehicle custom1 custom2" speed="33.33" length="200.08" shape="3567.41,1355.01 3367.29,1353.55"/>
        <lane id="m8_1" index="1" allow="private emergency authority army vip passenger hov taxi bus coach delivery truck trailer motorcycle evehicle custom1 custom2" speed="33.33" length="200.08" shape="3567.41,1351.81 3367.31,1350.35"/>
        <lane id="m8_2" index="2" allow="private emergency authority army vip passenger hov taxi bus coach delivery truck trailer motorcycle evehicle custom1 custom2" speed="33.33" length="200.08" shape="3567.41,1348.61 3367.34,1347.15"/>
        <lane id="m8_3" index="3" allow="private emergency authority army vip passenger hov taxi bus coach delivery truck trailer motorcycle evehicle custom1 custom2" speed="33.33" length="200.08" shape="3567.41,1345.41 3367.36,1343.95"/>
        <lane id="m8_4" index="4" allow="private emergency authority army vip passenger hov taxi bus coach delivery truck trailer motorcycle evehicle custom1 custom2" speed="33.33" length="200.08" shape="3567.40,1342.21 3367.38,1340.75"/>
    </edge>
    <edge id="m9" from="304821770" to="gneJ16" priority="-1" spreadType="center">
        <lane id="m9_0" index="0" speed="33.33" length="201.71" shape="3366.93,1353.55 3165.25,1350.09"/>
        <lane id="m9_1" index="1" speed="33.33" length="201.71" shape="3366.99,1350.35 3165.31,1346.89"/>
        <lane id="m9_2" index="2" speed="33.33" length="201.71" shape="3367.04,1347.15 3165.36,1343.69"/>
        <lane id="m9_3" index="3" speed="33.33" length="201.71" shape="3367.10,1343.95 3165.41,1340.49"/>
        <lane id="m9_4" index="4" speed="33.33" length="201.71" shape="3367.15,1340.75 3165.47,1337.29"/>
    </edge>
    <edge id="rin2" from="gneJ1" to="304822707" priority="1" spreadType="center">
        <lane id="rin2_0" index="0" speed="33.33" length="341.90" shape="4240.99,1373.78 3899.47,1357.74"/>
    </edge>
    <edge id="rin3" from="304822707" to="304822600" priority="12" type="highway.motorway_link" spreadType="center" shape="3899.32,1357.73 3788.90,1353.63 3731.45,1353.93 3700.91,1355.74">
        <lane id="rin3_0" index="0" allow="private emergency authority army vip passenger hov taxi bus coach delivery truck trailer motorcycle evehicle custom1 custom2" speed="33.33" length="196.57" shape="3899.17,1357.72 3788.90,1353.63 3731.45,1353.93 3702.73,1355.63"/>
    </edge>
    <edge id="rout1" from="304822559" to="304822667" priority="12" type="highway.motorway_link" spreadType="center" shape="3568.99,1358.47 3431.98,1358.59 3409.36,1360.02 3388.38,1361.89 3366.22,1364.36">
        <lane id="rout1_0" index="0" allow="private emergency authority army vip passenger hov taxi bus coach delivery truck trailer motorcycle evehicle custom1 custom2" speed="33.33" length="201.34" shape="3567.42,1358.47 3431.98,1358.59 3409.36,1360.02 3388.38,1361.89 3366.34,1364.35"/>
    </edge>
    <edge id="rout2" from="304822667" to="gneJ15" priority="-1" spreadType="center">
        <lane id="rout2_0" index="0" speed="33.33" length="106.33" shape="3366.10,1364.38 3260.85,1379.51"/>
    </edge>

    <junction id="123134076" type="dead_end" x="3123.64" y="0.00" incLanes="" intLanes="" shape="3123.64,0.00"/>
    <junction id="1775736271" type="dead_end" x="2853.76" y="2383.13" incLanes="" intLanes="" shape="2853.76,2383.13"/>
    <junction id="2277916551" type="dead_end" x="3173.13" y="2584.64" incLanes="" intLanes="" shape="3173.13,2584.64"/>
    <junction id="27748104#0-AddedOnRampNode" type="priority" x="3899.55" y="1309.38" incLanes="m5_0 m5_1 m5_2 m5_3 m5_4" intLanes=":27748104#0-AddedOnRampNode_0_0 :27748104#0-AddedOnRampNode_0_1 :27748104#0-AddedOnRampNode_0_2 :27748104#0-AddedOnRampNode_0_3 :27748104#0-AddedOnRampNode_0_4" shape="3902.50,1316.82 3897.00,1301.79 3896.43,1302.01 3902.27,1316.91">
        <request index="0" response="00000" foes="00000" cont="0"/>
        <request index="1" response="00000" foes="00000" cont="0"/>
        <request index="2" response="00000" foes="00000" cont="0"/>
        <request index="3" response="00000" foes="00000" cont="0"/>
        <request index="4" response="00000" foes="00000" cont="0"/>
    </junction>
    <junction id="301979490" type="dead_end" x="1689.62" y="729.93" incLanes="" intLanes="" shape="1689.62,729.93"/>
    <junction id="304821770" type="priority" x="3367.19" y="1347.15" incLanes="m8_0 m8_1 m8_2 m8_3 m8_4" intLanes=":304821770_0_0 :304821770_0_1 :304821770_0_2 :304821770_0_3 :304821770_0_4" shape="3367.28,1355.15 3367.40,1339.15 3367.18,1339.15 3366.91,1355.15">
        <request index="0" response="00000" foes="00000" cont="0"/>
        <request index="1" response="00000" foes="00000" cont="0"/>
        <request index="2" response="00000" foes="00000" cont="0"/>
        <request index="3" response="00000" foes="00000" cont="0"/>
        <request index="4" response="00000" foes="00000" cont="0"/>
    </junction>
    <junction id="304822559" type="priority" x="3568.79" y="1348.62" incLanes="m7_0 m7_1 m7_2 m7_3 m7_4 m7_5" intLanes=":304822559_0_0 :304822559_0_1 :304822559_2_0 :304822559_2_1 :304822559_2_2 :304822559_2_3 :304822559_2_4" shape="3570.58,1359.79 3570.19,1340.59 3567.40,1340.61 3567.42,1360.07">
        <request index="0" response="0000000" foes="0000010" cont="0"/>
        <request index="1" response="0000001" foes="0000001" cont="0"/>
        <request index="2" response="0000000" foes="0000000" cont="0"/>
        <request index="3" response="0000000" foes="0000000" cont="0"/>
        <request index="4" response="0000000" foes="0000000" cont="0"/>
        <request index="5" response="0000000" foes="0000000" cont="0"/>
        <request index="6" response="0000000" foes="0000000" cont="0"/>
    </junction>
    <junction id="304822600" type="priority" x="3700.71" y="1345.90" incLanes="m6_0 m6_1 m6_2 m6_3 m6_4 rin3_0" intLanes=":304822600_0_0 :304822600_0_1 :304822600_0_2 :304822600_0_3 :304822600_0_4 :304822600_5_0" shape="3702.81,1357.23 3701.86,1337.83 3699.10,1337.93 3699.49,1357.13">
        <request index="0" response="000000" foes="000000" cont="0"/>
        <request index="1" response="000000" foes="000000" cont="0"/>
        <request index="2" response="000000" foes="000000" cont="0"/>
        <request index="3" response="000000" foes="000000" cont="0"/>
        <request index="4" response="000000" foes="000000" cont="0"/>
        <request index="5" response="000000" foes="000000" cont="0"/>
    </junction>
    <junction id="304822667" type="priority" x="3366.22" y="1364.36" incLanes="rout1_0" intLanes=":304822667_0_0" shape="3366.52,1365.94 3366.17,1362.76 3365.87,1362.79 3366.32,1365.96">
        <request index="0" response="0" foes="0" cont="0"/>
    </junction>
    <junction id="304822707" type="traffic_light" x="3899.32" y="1357.73" incLanes="rin2_0" intLanes=":304822707_0_0" shape="3899.39,1359.34 3899.54,1356.14 3899.23,1356.13 3899.11,1359.32">
        <request index="0" response="0" foes="0" cont="0"/>
    </junction>
    <junction id="gneJ1" type="dead_end" x="4240.99" y="1373.78" incLanes="" intLanes="" shape="4241.07,1372.18 4240.91,1375.38"/>
    <junction id="gneJ10" type="dead_end" x="4509.47" y="1097.31" incLanes="" intLanes="" shape="4507.11,1089.67 4511.83,1104.95"/>
    <junction id="gneJ15" type="dead_end" x="3260.85" y="1379.51" incLanes="rout2_0" intLanes="" shape="3261.08,1381.09 3260.62,1377.93"/>
    <junction id="gneJ16" type="dead_end" x="3165.36" y="1343.69" incLanes="m9_0 m9_1 m9_2 m9_3 m9_4" intLanes="" shape="3165.22,1351.69 3165.50,1335.69"/>
    <junction id="gneJ2" type="priority" x="4088.96" y="1240.01" incLanes="m4_0 m4_1 m4_2 m4_3 m4_4" intLanes=":gneJ2_0_0 :gneJ2_0_1 :gneJ2_0_2 :gneJ2_0_3 :gneJ2_0_4" shape="4091.74,1247.51 4086.56,1232.37 4086.02,1232.57 4091.52,1247.59">
        <request index="0" response="00000" foes="00000" cont="0"/>
        <request index="1" response="00000" foes="00000" cont="0"/>
        <request index="2" response="00000" foes="00000" cont="0"/>
        <request index="3" response="00000" foes="00000" cont="0"/>
        <request index="4" response="00000" foes="00000" cont="0"/>
    </junction>
    <junction id="gneJ3" type="priority" x="4275.65" y="1176.17" incLanes="m3_0 m3_1 m3_2 m3_3 m3_4" intLanes=":gneJ3_0_0 :gneJ3_0_1 :gneJ3_0_2 :gneJ3_0_3 :gneJ3_0_4" shape="4278.39,1183.69 4273.19,1168.56 4272.92,1168.65 4278.10,1183.79">
        <request index="0" response="00000" foes="00000" cont="0"/>
        <request index="1" response="00000" foes="00000" cont="0"/>
        <request index="2" response="00000" foes="00000" cont="0"/>
        <request index="3" response="00000" foes="00000" cont="0"/>
        <request index="4" response="00000" foes="00000" cont="0"/>
    </junction>
    <junction id="gneJ4" type="priority" x="4465.47" y="1110.89" incLanes="m2_0 m2_1 m2_2 m2_3 m2_4" intLanes=":gneJ4_0_0 :gneJ4_0_1 :gneJ4_0_2 :gneJ4_0_3 :gneJ4_0_4" shape="4468.11,1118.45 4463.39,1103.16 4462.59,1103.42 4467.79,1118.55">
        <request index="0" response="00000" foes="00000" cont="0"/>
        <request index="1" response="00000" foes="00000" cont="0"/>
        <request index="2" response="00000" foes="00000" cont="0"/>
        <request index="3" response="00000" foes="00000" cont="0"/>
        <request index="4" response="00000" foes="00000" cont="0"/>
    </junction>

    <connection from="m2" to="m3" fromLane="0" toLane="0" via=":gneJ4_0_0" dir="s" state="M"/>
    <connection from="m2" to="m3" fromLane="1" toLane="1" via=":gneJ4_0_1" dir="s" state="M"/>
    <connection from="m2" to="m3" fromLane="2" toLane="2" via=":gneJ4_0_2" dir="s" state="M"/>
    <connection from="m2" to="m3" fromLane="3" toLane="3" via=":gneJ4_0_3" dir="s" state="M"/>
    <connection from="m2" to="m3" fromLane="4" toLane="4" via=":gneJ4_0_4" dir="s" state="M"/>
    <connection from="m3" to="m4" fromLane="0" toLane="0" via=":gneJ3_0_0" dir="s" state="M"/>
    <connection from="m3" to="m4" fromLane="1" toLane="1" via=":gneJ3_0_1" dir="s" state="M"/>
    <connection from="m3" to="m4" fromLane="2" toLane="2" via=":gneJ3_0_2" dir="s" state="M"/>
    <connection from="m3" to="m4" fromLane="3" toLane="3" via=":gneJ3_0_3" dir="s" state="M"/>
    <connection from="m3" to="m4" fromLane="4" toLane="4" via=":gneJ3_0_4" dir="s" state="M"/>
    <connection from="m4" to="m5" fromLane="0" toLane="0" via=":gneJ2_0_0" dir="s" state="M"/>
    <connection from="m4" to="m5" fromLane="1" toLane="1" via=":gneJ2_0_1" dir="s" state="M"/>
    <connection from="m4" to="m5" fromLane="2" toLane="2" via=":gneJ2_0_2" dir="s" state="M"/>
    <connection from="m4" to="m5" fromLane="3" toLane="3" via=":gneJ2_0_3" dir="s" state="M"/>
    <connection from="m4" to="m5" fromLane="4" toLane="4" via=":gneJ2_0_4" dir="s" state="M"/>
    <connection from="m5" to="m6" fromLane="0" toLane="0" via=":27748104#0-AddedOnRampNode_0_0" dir="s" state="M"/>
    <connection from="m5" to="m6" fromLane="1" toLane="1" via=":27748104#0-AddedOnRampNode_0_1" dir="s" state="M"/>
    <connection from="m5" to="m6" fromLane="2" toLane="2" via=":27748104#0-AddedOnRampNode_0_2" dir="s" state="M"/>
    <connection from="m5" to="m6" fromLane="3" toLane="3" via=":27748104#0-AddedOnRampNode_0_3" dir="s" state="M"/>
    <connection from="m5" to="m6" fromLane="4" toLane="4" via=":27748104#0-AddedOnRampNode_0_4" dir="s" state="M"/>
    <connection from="m6" to="m7" fromLane="0" toLane="1" pass="1" via=":304822600_0_0" dir="s" state="M"/>
    <connection from="m6" to="m7" fromLane="1" toLane="2" pass="1" via=":304822600_0_1" dir="s" state="M"/>
    <connection from="m6" to="m7" fromLane="2" toLane="3" pass="1" via=":304822600_0_2" dir="s" state="M"/>
    <connection from="m6" to="m7" fromLane="3" toLane="4" pass="1" via=":304822600_0_3" dir="s" state="M"/>
    <connection from="m6" to="m7" fromLane="4" toLane="5" pass="1" via=":304822600_0_4" dir="s" state="M"/>
    <connection from="m7" to="rout1" fromLane="0" toLane="0" via=":304822559_0_0" dir="s" state="M"/>
    <connection from="m7" to="rout1" fromLane="1" toLane="0" via=":304822559_0_1" dir="s" state="m"/>
    <connection from="m7" to="m8" fromLane="1" toLane="0" via=":304822559_2_0" dir="s" state="M"/>
    <connection from="m7" to="m8" fromLane="2" toLane="1" via=":304822559_2_1" dir="s" state="M"/>
    <connection from="m7" to="m8" fromLane="3" toLane="2" via=":304822559_2_2" dir="s" state="M"/>
    <connection from="m7" to="m8" fromLane="4" toLane="3" via=":304822559_2_3" dir="s" state="M"/>
    <connection from="m7" to="m8" fromLane="5" toLane="4" via=":304822559_2_4" dir="s" state="M"/>
    <connection from="m8" to="m9" fromLane="0" toLane="0" via=":304821770_0_0" dir="s" state="M"/>
    <connection from="m8" to="m9" fromLane="1" toLane="1" via=":304821770_0_1" dir="s" state="M"/>
    <connection from="m8" to="m9" fromLane="2" toLane="2" via=":304821770_0_2" dir="s" state="M"/>
    <connection from="m8" to="m9" fromLane="3" toLane="3" via=":304821770_0_3" dir="s" state="M"/>